CPDS_validation_cosim/Distribution/Bus11/IEEE34Bus/ieee34-1_Power_seq_MVA.txt

SYMMETRICAL COMPONENT POWERS BY CIRCUIT ELEMENT (first 3 phases)                                     Excess Power

Element             Term    P1(MW)   Q1(Mvar)       P2         Q2      P0      Q0       P_Norm      Q_Norm     P_Emerg    Q_Emerg

"Vsource.SOURCE"     1       -2.4       -0.5        0.0        0.0     0.0     0.0
"Vsource.SOURCE"     2        0.0        0.0        0.0        0.0     0.0     0.0
"Transformer.SUBXF"  1        2.4        0.5       -0.0       -0.0    -0.0     0.0        0.0        0.0        0.0        0.0
"Transformer.SUBXF"  2       -2.4       -0.5        0.0        0.0     0.0     0.0
"Line.L1"            1        2.4        0.5       -0.0       -0.0    -0.0    -0.0        0.0        0.0        0.0        0.0
"Line.L1"            2       -2.4       -0.5        0.0        0.0     0.0     0.0
"Line.L2"            1        2.0        0.3       -0.0       -0.0    -0.0    -0.0        0.0        0.0        0.0        0.0
"Line.L2"            2       -2.0       -0.3        0.0        0.0     0.0     0.0
"Line.L3"            1        2.0        0.3       -0.0       -0.0    -0.0    -0.0        0.0        0.0        0.0        0.0
"Line.L3"            2       -1.9       -0.2        0.0        0.0     0.0     0.0
"Line.L4"            1        0.0        0.0        0.0        0.0     0.0     0.0        0.0        0.0        0.0        0.0
"Line.L4"            2        0.0        0.0        0.0        0.0     0.0     0.0
"Line.L5"            1        1.9        0.2       -0.0       -0.0    -0.0    -0.0        0.0        0.0        0.0        0.0
"Line.L5"            2       -1.9       -0.2        0.0        0.0     0.0     0.0
"Line.L6"            1        1.9        0.2       -0.0       -0.0    -0.0    -0.0        0.0        0.0        0.0        0.0
"Line.L6"            2       -1.8       -0.2        0.0        0.0     0.0     0.0
"Line.L7"            1        1.8        0.2        0.0        0.0    -0.0    -0.0        0.0        0.0        0.0        0.0
"Line.L7"            2       -1.8       -0.2       -0.0       -0.0     0.0     0.0
"Line.L8"            1        0.0        0.0        0.0        0.0     0.0     0.0        0.0        0.0        0.0        0.0
"Line.L8"            2        0.0        0.0        0.0        0.0     0.0     0.0
"Line.L9"            1        1.7        0.1       -0.0       -0.0     0.0    -0.0        0.0        0.0        0.0        0.0
"Line.L9"            2       -1.6       -0.1        0.0        0.0    -0.0     0.0
"Line.L10"           1        0.0        0.0        0.0        0.0     0.0     0.0        0.0        0.0        0.0        0.0
"Line.L10"           2        0.0        0.0        0.0        0.0     0.0     0.0
"Line.L11"           1        0.0        0.0        0.0        0.0     0.0     0.0        0.0        0.0        0.0        0.0
"Line.L11"           2        0.0        0.0        0.0        0.0     0.0     0.0
"Line.L12"           1        0.0        0.0        0.0        0.0     0.0     0.0        0.0        0.0        0.0        0.0
"Line.L12"           2        0.0        0.0        0.0        0.0     0.0     0.0
"Line.L13"           1        1.6        0.1       -0.0        0.0     0.0    -0.0        0.0        0.0        0.0        0.0
"Line.L13"           2       -1.6       -0.1        0.0       -0.0    -0.0     0.0
"Line.L14"           1        1.6        0.1       -0.0        0.0     0.0    -0.0        0.0        0.0        0.0        0.0
"Line.L14"           2       -1.6       -0.1        0.0       -0.0    -0.0     0.0
"Line.L15"           1        1.5        0.1       -0.0        0.0     0.0    -0.0        0.0        0.0        0.0        0.0
"Line.L15"           2       -1.5       -0.1        0.0       -0.0    -0.0     0.0
"Line.L16"           1        1.0       -0.2       -0.0        0.0     0.0    -0.0        0.0        0.0        0.0        0.0
"Line.L16"           2       -1.0        0.1        0.0       -0.0    -0.0     0.0
"Line.L17"           1        0.3        0.2       -0.0        0.0    -0.0    -0.0        0.0        0.0        0.0        0.0
"Line.L17"           2       -0.3       -0.2        0.0       -0.0     0.0     0.0
"Line.L18"           1        0.6       -0.4        0.0       -0.0     0.0    -0.0        0.0        0.0        0.0        0.0
"Line.L18"           2       -0.6        0.4       -0.0        0.0    -0.0     0.0
"Line.L19"           1        0.0        0.0        0.0       -0.0     0.0     0.0        0.0        0.0        0.0        0.0
"Line.L19"           2       -0.0       -0.0       -0.0        0.0    -0.0    -0.0
"Line.L20"           1        0.0        0.0        0.0       -0.0    -0.0    -0.0        0.0        0.0        0.0        0.0
"Line.L20"           2       -0.0       -0.0       -0.0        0.0     0.0     0.0
"Line.L21"           1        0.6       -0.4        0.0       -0.0     0.0    -0.0        0.0        0.0        0.0        0.0
"Line.L21"           2       -0.6        0.4       -0.0        0.0    -0.0     0.0
"Line.L22"           1        0.1       -0.4        0.0       -0.0     0.0    -0.0        0.0        0.0        0.0        0.0
"Line.L22"           2       -0.1        0.4       -0.0        0.0    -0.0     0.0
"Line.L23"           1        0.1       -0.4        0.0       -0.0    -0.0    -0.0        0.0        0.0        0.0        0.0
"Line.L23"           2       -0.1        0.4       -0.0        0.0     0.0     0.0
"Line.L24"           1        1.8        0.2        0.0        0.0    -0.0    -0.0        0.0        0.0        0.0        0.0
"Line.L24"           2       -1.8       -0.2       -0.0       -0.0     0.0     0.0
"Line.L25"           1        1.5        0.1       -0.0        0.0     0.0    -0.0        0.0        0.0        0.0        0.0
"Line.L25"           2       -1.5       -0.1        0.0       -0.0    -0.0     0.0
"Transformer.XFM1"   1        0.5        0.3        0.0        0.0    -0.0    -0.0        0.0        0.0        0.0        0.0
"Transformer.XFM1"   2       -0.4       -0.2       -0.0       -0.0     0.0     0.0
"Line.L26"           1        0.0        0.0        0.0        0.0     0.0     0.0        0.0        0.0        0.0        0.0
"Line.L26"           2        0.0        0.0        0.0        0.0     0.0     0.0
"Line.L27"           1        1.5        0.1       -0.0        0.0     0.0    -0.0        0.0        0.0        0.0        0.0
"Line.L27"           2       -1.5       -0.1        0.0       -0.0    -0.0     0.0
"Line.L28"           1        0.0        0.0        0.0        0.0     0.0     0.0        0.0        0.0        0.0        0.0
"Line.L28"           2        0.0        0.0        0.0        0.0     0.0     0.0
"Line.L29"           1        1.0       -0.2       -0.0        0.0     0.0    -0.0        0.0        0.0        0.0        0.0
"Line.L29"           2       -1.0        0.2        0.0       -0.0     0.0     0.0
"Line.L30"           1        0.1        0.1        0.0       -0.0    -0.0    -0.0        0.0        0.0        0.0        0.0
"Line.L30"           2       -0.1       -0.1       -0.0        0.0     0.0     0.0
"Line.L31"           1        0.0        0.0        0.0        0.0     0.0     0.0        0.0        0.0        0.0        0.0
"Line.L31"           2        0.0        0.0        0.0        0.0     0.0     0.0
"Line.L32"           1        0.4        0.2        0.0        0.0    -0.0    -0.0        0.0        0.0        0.0        0.0
"Line.L32"           2       -0.4       -0.2       -0.0       -0.0    -0.0     0.0
"Capacitor.C844"     1        0.0       -0.3       -0.0       -0.0    -0.0    -0.0        0.0        0.0        0.0        0.0
"Capacitor.C844"     2        0.0        0.0        0.0        0.0     0.0     0.0
"Capacitor.C848"     1       -0.0       -0.5        0.0       -0.0    -0.0    -0.0        0.0        0.0        0.0        0.0
"Capacitor.C848"     2        0.0        0.0        0.0        0.0     0.0     0.0
"Transformer.REG1A"  1        0.0        0.0        0.0        0.0     0.0     0.0        0.0        0.0        0.0        0.0
"Transformer.REG1A"  2        0.0        0.0        0.0        0.0     0.0     0.0
"Transformer.REG1B"  1        0.0        0.0        0.0        0.0     0.0     0.0        0.0        0.0        0.0        0.0
"Transformer.REG1B"  2        0.0        0.0        0.0        0.0     0.0     0.0
"Transformer.REG1C"  1        0.0        0.0        0.0        0.0     0.0     0.0        0.0        0.0        0.0        0.0
"Transformer.REG1C"  2        0.0        0.0        0.0        0.0     0.0     0.0
"Transformer.REG2A"  1        0.0        0.0        0.0        0.0     0.0     0.0        0.0        0.0        0.0        0.0
"Transformer.REG2A"  2        0.0        0.0        0.0        0.0     0.0     0.0
"Transformer.REG2B"  1        0.0        0.0        0.0        0.0     0.0     0.0        0.0        0.0        0.0        0.0
"Transformer.REG2B"  2        0.0        0.0        0.0        0.0     0.0     0.0
"Transformer.REG2C"  1        0.0        0.0        0.0        0.0     0.0     0.0        0.0        0.0        0.0        0.0
"Transformer.REG2C"  2        0.0        0.0        0.0        0.0     0.0     0.0
"Load.S802"          1        0.4        0.2       -0.0       -0.0    -0.0    -0.0
"Load.S860"          1        0.1        0.0        0.0        0.0     0.0     0.0
"Load.S840"          1        0.0        0.0        0.0        0.0     0.0     0.0
"Load.S844"          1        0.4        0.3        0.0        0.0     0.0     0.0
"Load.S848"          1        0.1        0.0        0.0        0.0    -0.0     0.0
"Load.S830"          1        0.0        0.0        0.0        0.0     0.0     0.0
"Load.S890"          1        0.4        0.2        0.0        0.0    -0.0     0.0
"Load.D802_806SB"    1        0.0        0.0        0.0        0.0     0.0     0.0
"Load.D802_806RB"    1        0.0        0.0        0.0        0.0     0.0     0.0
"Load.D802_806SC"    1        0.0        0.0        0.0        0.0     0.0     0.0
"Load.D802_806RC"    1        0.0        0.0        0.0        0.0     0.0     0.0
"Load.D808_810SB"    1        0.0        0.0        0.0        0.0     0.0     0.0
"Load.D808_810RB"    1        0.0        0.0        0.0        0.0     0.0     0.0
"Load.D818_820SA"    1        0.0        0.0        0.0        0.0     0.0     0.0
"Load.D818_820RA"    1        0.0        0.0        0.0        0.0     0.0     0.0
"Load.D820_822SA"    1        0.0        0.0        0.0        0.0     0.0     0.0
"Load.D820_822RA"    1        0.0        0.0        0.0        0.0     0.0     0.0
"Load.D816_824SB"    1        0.0        0.0        0.0        0.0     0.0     0.0
"Load.D816_824RB"    1        0.0        0.0        0.0        0.0     0.0     0.0
"Load.D824_826SB"    1        0.0        0.0        0.0        0.0     0.0     0.0
"Load.D824_826RB"    1        0.0        0.0        0.0        0.0     0.0     0.0
"Load.D824_828SC"    1        0.0        0.0        0.0        0.0     0.0     0.0
"Load.D824_828RC"    1        0.0        0.0        0.0        0.0     0.0     0.0
"Load.D828_830SA"    1        0.0        0.0        0.0        0.0     0.0     0.0
"Load.D828_830RA"    1        0.0        0.0        0.0        0.0     0.0     0.0
"Load.D854_856SB"    1        0.0        0.0        0.0        0.0     0.0     0.0
"Load.D854_856RB"    1        0.0        0.0        0.0        0.0     0.0     0.0
"Load.D832_858SA"    1        0.0        0.0        0.0        0.0     0.0     0.0
"Load.D832_858RA"    1        0.0        0.0        0.0        0.0     0.0     0.0
"Load.D832_858SB"    1        0.0        0.0        0.0        0.0     0.0     0.0
"Load.D832_858RB"    1        0.0        0.0        0.0        0.0     0.0     0.0
"Load.D832_858SC"    1        0.0        0.0        0.0        0.0     0.0     0.0
"Load.D832_858RC"    1        0.0        0.0        0.0        0.0     0.0     0.0
"Load.D858_864SB"    1        0.0        0.0        0.0        0.0     0.0     0.0
"Load.D858_864RB"    1        0.0        0.0        0.0        0.0     0.0     0.0
"Load.D858_834SA"    1        0.0        0.0        0.0        0.0     0.0     0.0
"Load.D858_834RA"    1        0.0        0.0        0.0        0.0     0.0     0.0
"Load.D858_834SB"    1        0.0        0.0        0.0        0.0     0.0     0.0
"Load.D858_834RB"    1        0.0        0.0        0.0        0.0     0.0     0.0
"Load.D858_834SC"    1        0.0        0.0        0.0        0.0     0.0     0.0
"Load.D858_834RC"    1        0.0        0.0        0.0        0.0     0.0     0.0
"Load.D834_860SA"    1        0.0        0.0        0.0        0.0     0.0     0.0
"Load.D834_860RA"    1        0.0        0.0        0.0        0.0     0.0     0.0
"Load.D834_860SB"    1        0.0        0.0        0.0        0.0     0.0     0.0
"Load.D834_860RB"    1        0.0        0.0        0.0        0.0     0.0     0.0
"Load.D834_860SC"    1        0.0        0.0        0.0        0.0     0.0     0.0
"Load.D834_860RC"    1        0.0        0.0        0.0        0.0     0.0     0.0
"Load.D860_836SA"    1        0.0        0.0        0.0        0.0     0.0     0.0
"Load.D860_836RA"    1        0.0        0.0        0.0        0.0     0.0     0.0
"Load.D860_836SB"    1        0.0        0.0        0.0        0.0     0.0     0.0
"Load.D860_836RB"    1        0.0        0.0        0.0        0.0     0.0     0.0
"Load.D860_836SC"    1        0.0        0.0        0.0        0.0     0.0     0.0
"Load.D860_836RC"    1        0.0        0.0        0.0        0.0     0.0     0.0
"Load.D836_840SA"    1        0.0        0.0        0.0        0.0     0.0     0.0
"Load.D836_840RA"    1        0.0        0.0        0.0        0.0     0.0     0.0
"Load.D836_840SB"    1        0.0        0.0        0.0        0.0     0.0     0.0
"Load.D836_840RB"    1        0.0        0.0        0.0        0.0     0.0     0.0
"Load.D862_838SB"    1        0.0        0.0        0.0        0.0     0.0     0.0
"Load.D862_838RB"    1        0.0        0.0        0.0        0.0     0.0     0.0
"Load.D842_844SA"    1        0.0        0.0        0.0        0.0     0.0     0.0
"Load.D842_844RA"    1        0.0        0.0        0.0        0.0     0.0     0.0
"Load.D844_846SB"    1        0.0        0.0        0.0        0.0     0.0     0.0
"Load.D844_846RB"    1        0.0        0.0        0.0        0.0     0.0     0.0
"Load.D844_846SC"    1        0.0        0.0        0.0        0.0     0.0     0.0
"Load.D844_846RC"    1        0.0        0.0        0.0        0.0     0.0     0.0
"Load.D846_848SB"    1        0.0        0.0        0.0        0.0     0.0     0.0
"Load.D846_848RB"    1        0.0        0.0        0.0        0.0     0.0     0.0

Total Circuit Losses =    0.3 +j    0.0
